
#======================================================================
# CRYSTAL DATA
#----------------------------------------------------------------------
data_VESTA_phase_1

_chemical_name_common                  'au_111_4_layers_5x5_with_h2o_6_bilayer'
_cell_length_a                         14.697700
_cell_length_b                         14.697700
_cell_length_c                         49.200401
_cell_angle_alpha                      90.000000
_cell_angle_beta                       90.000000
_cell_angle_gamma                      120.000000
_cell_volume                           9204.453483
_space_group_name_H-M_alt              'P 1'
_space_group_IT_number                 1

loop_
_space_group_symop_operation_xyz
   'x, y, z'

loop_
   _atom_site_label
   _atom_site_occupancy
   _atom_site_fract_x
   _atom_site_fract_y
   _atom_site_fract_z
   _atom_site_adp_type
   _atom_site_U_iso_or_equiv
   _atom_site_type_symbol
   Au1        1.0     0.000000     0.000000     0.000000    Uiso  ? Au
   Au2        1.0     0.266564     0.133431     0.047414    Uiso  ? Au
   Au3        1.0     0.133234     0.266240     0.094222    Uiso  ? Au
   Au4        1.0     0.000071     0.000128     0.142713    Uiso  ? Au
   Au5        1.0     1.000000     0.200000     0.000000    Uiso  ? Au
   Au6        1.0     0.266972     0.333471     0.047334    Uiso  ? Au
   Au7        1.0     0.132724     0.066517     0.094327    Uiso  ? Au
   Au8        1.0    -0.000072     0.199959     0.141698    Uiso  ? Au
   Au9        1.0     0.200000     0.200000     0.000000    Uiso  ? Au
   Au10       1.0     0.066741     0.333498     0.047459    Uiso  ? Au
   Au11       1.0     0.333167     0.066893     0.094166    Uiso  ? Au
   Au12       1.0     0.198737     0.198792     0.142287    Uiso  ? Au
   Au13       1.0     0.200000     0.000000     0.000000    Uiso  ? Au
   Au14       1.0     0.066529     0.133490     0.047353    Uiso  ? Au
   Au15       1.0     0.332545     0.266642     0.094376    Uiso  ? Au
   Au16       1.0     0.200021     0.000198     0.141705    Uiso  ? Au
   Au17       1.0     0.400000     0.000000     0.000000    Uiso  ? Au
   Au18       1.0     0.666646     0.133282     0.047464    Uiso  ? Au
   Au19       1.0     0.532591     0.266148     0.094336    Uiso  ? Au
   Au20       1.0     0.398929     0.000216     0.141885    Uiso  ? Au
   Au21       1.0     0.400000     0.200000     0.000000    Uiso  ? Au
   Au22       1.0     0.666671     0.333338     0.047621    Uiso  ? Au
   Au23       1.0     0.532540     0.066564     0.094170    Uiso  ? Au
   Au24       1.0     0.398372     0.200177     0.141970    Uiso  ? Au
   Au25       1.0     0.600000     0.200000     0.000000    Uiso  ? Au
   Au26       1.0     0.466691     0.333369     0.047463    Uiso  ? Au
   Au27       1.0     0.733353     0.065837     0.094376    Uiso  ? Au
   Au28       1.0     0.601245     0.200368     0.141599    Uiso  ? Au
   Au29       1.0     0.600000     0.000000     0.000000    Uiso  ? Au
   Au30       1.0     0.466875     0.133664     0.047275    Uiso  ? Au
   Au31       1.0     0.733823     0.266426     0.094337    Uiso  ? Au
   Au32       1.0     0.598202    -0.000022     0.141439    Uiso  ? Au
   Au33       1.0     0.800000     0.000000     0.000000    Uiso  ? Au
   Au34       1.0     0.933089     0.266248     0.094162    Uiso  ? Au
   Au35       1.0     0.801355     0.000008     0.142297    Uiso  ? Au
   Au36       1.0     0.800000     0.200000     0.000000    Uiso  ? Au
   Au37       1.0     0.933562     0.066256     0.094324    Uiso  ? Au
   Au38       1.0     0.799813     0.198146     0.141967    Uiso  ? Au
   Au39       1.0     0.866301     0.333191     0.047276    Uiso  ? Au
   Au40       1.0     0.866568     0.133110     0.047412    Uiso  ? Au
   Au41       1.0     0.000000     0.400000     0.000000    Uiso  ? Au
   Au42       1.0     0.266317     0.533150     0.047353    Uiso  ? Au
   Au43       1.0     0.133638     0.667132     0.094151    Uiso  ? Au
   Au44       1.0    -0.000341     0.398685     0.141879    Uiso  ? Au
   Au45       1.0     0.000000     0.600000     0.000000    Uiso  ? Au
   Au46       1.0     0.266846     0.733620     0.047352    Uiso  ? Au
   Au47       1.0     0.133463     0.466484     0.094542    Uiso  ? Au
   Au48       1.0    -0.000011     0.598212     0.141431    Uiso  ? Au
   Au49       1.0     0.200000     0.600000     0.000000    Uiso  ? Au
   Au50       1.0     0.066570     0.733078     0.047336    Uiso  ? Au
   Au51       1.0     0.332878     0.466489     0.094155    Uiso  ? Au
   Au52       1.0     0.200479     0.601550     0.141635    Uiso  ? Au
   Au53       1.0     0.200000     0.400000     0.000000    Uiso  ? Au
   Au54       1.0     0.066753     0.533126     0.047428    Uiso  ? Au
   Au55       1.0     0.333312     0.666582     0.094112    Uiso  ? Au
   Au56       1.0     0.200154     0.398218     0.141983    Uiso  ? Au
   Au57       1.0     0.400000     0.400000     0.000000    Uiso  ? Au
   Au58       1.0     0.666816     0.533168     0.047273    Uiso  ? Au
   Au59       1.0     0.533538     0.667021     0.094538    Uiso  ? Au
   Au60       1.0     0.401870     0.401818     0.141447    Uiso  ? Au
   Au61       1.0     0.400000     0.600000     0.000000    Uiso  ? Au
   Au62       1.0     0.666506     0.733261     0.047460    Uiso  ? Au
   Au63       1.0     0.534064     0.467461     0.094167    Uiso  ? Au
   Au64       1.0     0.398518     0.598956     0.141631    Uiso  ? Au
   Au65       1.0     0.600000     0.600000     0.000000    Uiso  ? Au
   Au66       1.0     0.466799     0.733126     0.047353    Uiso  ? Au
   Au67       1.0     0.733567     0.467420     0.094332    Uiso  ? Au
   Au68       1.0     0.601414     0.601109     0.141878    Uiso  ? Au
   Au69       1.0     0.600000     0.400000     0.000000    Uiso  ? Au
   Au70       1.0     0.466879     0.533651     0.047428    Uiso  ? Au
   Au71       1.0     0.733836     0.666918     0.094162    Uiso  ? Au
   Au72       1.0     0.599139     0.398731     0.141599    Uiso  ? Au
   Au73       1.0     0.800000     0.400000     0.000000    Uiso  ? Au
   Au74       1.0     0.934170     0.667580     0.094376    Uiso  ? Au
   Au75       1.0     0.799576     0.400857     0.141596    Uiso  ? Au
   Au76       1.0     0.800000     0.600000     0.000000    Uiso  ? Au
   Au77       1.0     0.933372     0.465999     0.094164    Uiso  ? Au
   Au78       1.0     0.801888     0.601701     0.141966    Uiso  ? Au
   Au79       1.0     0.866912     0.733490     0.047409    Uiso  ? Au
   Au80       1.0     0.866697     0.533394     0.047458    Uiso  ? Au
   Au81       1.0     0.000000     0.800000     0.000000    Uiso  ? Au
   Au82       1.0     0.266764     0.933230     0.047459    Uiso  ? Au
   Au83       1.0     0.000053     0.801444     0.142296    Uiso  ? Au
   Au84       1.0     0.133033     0.866840     0.094229    Uiso  ? Au
   Au85       1.0     0.332971     0.866450     0.094541    Uiso  ? Au
   Au86       1.0     0.200000     0.800000     0.000000    Uiso  ? Au
   Au87       1.0     0.066997     0.933497     0.047351    Uiso  ? Au
   Au88       1.0     0.197998     0.799885     0.141983    Uiso  ? Au
   Au89       1.0     0.400000     0.800000     0.000000    Uiso  ? Au
   Au90       1.0     0.666522     0.933450     0.047337    Uiso  ? Au
   Au91       1.0     0.401061     0.799495     0.141628    Uiso  ? Au
   Au92       1.0     0.533478     0.866330     0.094148    Uiso  ? Au
   Au93       1.0     0.733851     0.867015     0.094226    Uiso  ? Au
   Au94       1.0     0.600000     0.800000     0.000000    Uiso  ? Au
   Au95       1.0     0.466338     0.933193     0.047423    Uiso  ? Au
   Au96       1.0     0.601945     0.802028     0.141975    Uiso  ? Au
   Au97       1.0     0.800000     0.800000     0.000000    Uiso  ? Au
   Au98       1.0     0.800207     0.800065     0.141707    Uiso  ? Au
   Au99       1.0     0.933844     0.867411     0.094325    Uiso  ? Au
   Au100      1.0     0.866541     0.933066     0.047352    Uiso  ? Au
   H1         1.0     0.168918     0.063344     0.298671    Uiso  ? H
   H2         1.0     0.398324     0.335168     0.294716    Uiso  ? H
   H3         1.0     0.104871     0.167725     0.221174    Uiso  ? H
   H4         1.0     0.063064     0.392924     0.217636    Uiso  ? H
   H5         1.0     0.167766     0.104864     0.221164    Uiso  ? H
   H6         1.0     0.392868     0.062955     0.217662    Uiso  ? H
   H7         1.0     0.063388     0.168923     0.298668    Uiso  ? H
   H8         1.0     0.335208     0.398302     0.294772    Uiso  ? H
   H9         1.0     0.163581    -0.000588     0.188189    Uiso  ? H
   H10        1.0     0.233630    -0.000271     0.214042    Uiso  ? H
   H11        1.0     0.314768     0.315341     0.186117    Uiso  ? H
   H12        1.0     0.260878     0.260955     0.214940    Uiso  ? H
   H13        1.0    -0.000416     0.163679     0.188185    Uiso  ? H
   H14        1.0    -0.000190     0.233676     0.214037    Uiso  ? H
   H15        1.0     0.323729     0.000042     0.262732    Uiso  ? H
   H16        1.0     0.264327     0.000089     0.291066    Uiso  ? H
   H17        1.0     0.171844     0.171799     0.265928    Uiso  ? H
   H18        1.0     0.236769     0.236720     0.292662    Uiso  ? H
   H19        1.0     0.000179     0.323763     0.262717    Uiso  ? H
   H20        1.0     0.000126     0.264311     0.291055    Uiso  ? H
   H21        1.0     0.664825     0.063167     0.294867    Uiso  ? H
   H22        1.0     0.894804     0.331407     0.294753    Uiso  ? H
   H23        1.0     0.436779     0.105650     0.294773    Uiso  ? H
   H24        1.0     0.603658     0.166588     0.215676    Uiso  ? H
   H25        1.0     0.562935     0.396221     0.215602    Uiso  ? H
   H26        1.0     0.435922     0.331432     0.216109    Uiso  ? H
   H27        1.0     0.668642     0.104614     0.216157    Uiso  ? H
   H28        1.0     0.894764     0.062819     0.221258    Uiso  ? H
   H29        1.0     0.563316     0.168635     0.294025    Uiso  ? H
   H30        1.0     0.831780     0.394929     0.293982    Uiso  ? H
   H31        1.0     0.684969    -0.000120     0.186108    Uiso  ? H
   H32        1.0     0.739028     0.000052     0.214975    Uiso  ? H
   H33        1.0     0.832433     0.324206     0.184648    Uiso  ? H
   H34        1.0     0.763715     0.263078     0.211377    Uiso  ? H
   H35        1.0     0.491434     0.167219     0.184619    Uiso  ? H
   H36        1.0     0.499032     0.236066     0.211318    Uiso  ? H
   H37        1.0     0.827910     0.000021     0.266022    Uiso  ? H
   H38        1.0     0.763158     0.000038     0.292792    Uiso  ? H
   H39        1.0     0.672220     0.172611     0.260801    Uiso  ? H
   H40        1.0     0.734855     0.235127     0.288394    Uiso  ? H
   H41        1.0     0.500448     0.327808     0.260688    Uiso  ? H
   H42        1.0     0.500369     0.265328     0.288328    Uiso  ? H
   H43        1.0     0.168550     0.563228     0.294126    Uiso  ? H
   H44        1.0     0.394895     0.831763     0.294078    Uiso  ? H
   H45        1.0     0.331386     0.435992     0.216229    Uiso  ? H
   H46        1.0     0.104758     0.668668     0.216277    Uiso  ? H
   H47        1.0     0.062769     0.894765     0.221272    Uiso  ? H
   H48        1.0     0.166681     0.603641     0.215769    Uiso  ? H
   H49        1.0     0.396212     0.562993     0.215700    Uiso  ? H
   H50        1.0     0.063111     0.664795     0.294915    Uiso  ? H
   H51        1.0     0.331386     0.894797     0.294813    Uiso  ? H
   H52        1.0     0.105573     0.436686     0.294814    Uiso  ? H
   H53        1.0     0.167767     0.491910     0.184633    Uiso  ? H
   H54        1.0     0.236181     0.499132     0.211389    Uiso  ? H
   H55        1.0     0.324119     0.831926     0.184667    Uiso  ? H
   H56        1.0     0.263080     0.763600     0.211449    Uiso  ? H
   H57        1.0     0.001101     0.685570     0.186107    Uiso  ? H
   H58        1.0     0.000247     0.739126     0.214973    Uiso  ? H
   H59        1.0     0.327836     0.500544     0.260815    Uiso  ? H
   H60        1.0     0.265297     0.500351     0.288451    Uiso  ? H
   H61        1.0     0.172661     0.672133     0.260910    Uiso  ? H
   H62        1.0     0.235109     0.734821     0.288503    Uiso  ? H
   H63        1.0    -0.000065     0.827868     0.266024    Uiso  ? H
   H64        1.0    -0.000046     0.763127     0.292796    Uiso  ? H
   H65        1.0     0.668663     0.563208     0.294755    Uiso  ? H
   H66        1.0     0.894249     0.830884     0.298682    Uiso  ? H
   H67        1.0     0.436747     0.605193     0.294056    Uiso  ? H
   H68        1.0     0.833609     0.437412     0.215674    Uiso  ? H
   H69        1.0     0.606896     0.670132     0.217595    Uiso  ? H
   H70        1.0     0.564294     0.895726     0.216220    Uiso  ? H
   H71        1.0     0.437312     0.833509     0.215753    Uiso  ? H
   H72        1.0     0.670069     0.606957     0.217614    Uiso  ? H
   H73        1.0     0.895884     0.564400     0.216114    Uiso  ? H
   H74        1.0     0.563264     0.668673     0.294793    Uiso  ? H
   H75        1.0     0.830862     0.894285     0.298678    Uiso  ? H
   H76        1.0     0.605172     0.436709     0.293960    Uiso  ? H
   H77        1.0     0.676115     0.508380     0.184614    Uiso  ? H
   H78        1.0     0.737326     0.501051     0.211356    Uiso  ? H
   H79        1.0     0.836261     0.836341     0.188206    Uiso  ? H
   H80        1.0     0.766234     0.766282     0.214016    Uiso  ? H
   H81        1.0     0.507932     0.676113     0.184627    Uiso  ? H
   H82        1.0     0.500919     0.737297     0.211414    Uiso  ? H
   H83        1.0     0.827593     0.499902     0.260767    Uiso  ? H
   H84        1.0     0.764947     0.499697     0.288378    Uiso  ? H
   H85        1.0     0.676045     0.676105     0.262669    Uiso  ? H
   H86        1.0     0.735513     0.735530     0.290997    Uiso  ? H
   H87        1.0     0.499763     0.827524     0.260864    Uiso  ? H
   H88        1.0     0.499704     0.764946     0.288472    Uiso  ? H
   H89        1.0     0.936603     0.105575     0.298699    Uiso  ? H
   H90        1.0     0.936750     0.329853     0.217683    Uiso  ? H
   H91        1.0     0.936861     0.601685     0.294854    Uiso  ? H
   H92        1.0     0.937040     0.831869     0.221262    Uiso  ? H
   H93        1.0     0.329774     0.936642     0.217671    Uiso  ? H
   H94        1.0     0.105553     0.936565     0.298697    Uiso  ? H
   H95        1.0     0.831926     0.937091     0.221273    Uiso  ? H
   H96        1.0     0.601689     0.936917     0.294887    Uiso  ? H
   O1         1.0     0.165092    -0.000319     0.208177    Uiso  ? O
   O2         1.0     0.173355    -0.000018     0.304104    Uiso  ? O
   O3         1.0     0.325480     0.325656     0.205816    Uiso  ? O
   O4         1.0     0.333491     0.333416     0.301739    Uiso  ? O
   O5         1.0    -0.000271     0.165127     0.208173    Uiso  ? O
   O6         1.0     0.000034     0.173380     0.304104    Uiso  ? O
   O7         1.0     0.329519     0.000195     0.282614    Uiso  ? O
   O8         1.0     0.327581    -0.000219     0.224514    Uiso  ? O
   O9         1.0     0.169601     0.169566     0.285893    Uiso  ? O
   O10        1.0     0.170760     0.170732     0.227944    Uiso  ? O
   O11        1.0     0.000233     0.329500     0.282599    Uiso  ? O
   O12        1.0    -0.000085     0.327662     0.224507    Uiso  ? O
   O13        1.0     0.674471     0.000134     0.205801    Uiso  ? O
   O14        1.0     0.666513     0.000059     0.301893    Uiso  ? O
   O15        1.0     0.832292     0.329510     0.204538    Uiso  ? O
   O16        1.0     0.827371     0.327897     0.300138    Uiso  ? O
   O17        1.0     0.496821     0.167437     0.204512    Uiso  ? O
   O18        1.0     0.500693     0.173092     0.300162    Uiso  ? O
   O19        1.0     0.830277     0.000023     0.285987    Uiso  ? O
   O20        1.0     0.828899    -0.000042     0.228051    Uiso  ? O
   O21        1.0     0.668602     0.168845     0.280722    Uiso  ? O
   O22        1.0     0.669754     0.170178     0.222374    Uiso  ? O
   O23        1.0     0.500288     0.331522     0.280609    Uiso  ? O
   O24        1.0     0.500336     0.330187     0.222290    Uiso  ? O
   O25        1.0     0.167596     0.496917     0.204528    Uiso  ? O
   O26        1.0     0.172963     0.500566     0.300248    Uiso  ? O
   O27        1.0     0.329435     0.832140     0.204559    Uiso  ? O
   O28        1.0     0.327868     0.827386     0.300225    Uiso  ? O
   O29        1.0     0.000540     0.674668     0.205801    Uiso  ? O
   O30        1.0    -0.000060     0.666470     0.301902    Uiso  ? O
   O31        1.0     0.331536     0.500342     0.280735    Uiso  ? O
   O32        1.0     0.330200     0.500437     0.222416    Uiso  ? O
   O33        1.0     0.168841     0.668549     0.280833    Uiso  ? O
   O34        1.0     0.170289     0.669708     0.222497    Uiso  ? O
   O35        1.0    -0.000039     0.830252     0.285988    Uiso  ? O
   O36        1.0    -0.000097     0.828867     0.228051    Uiso  ? O
   O37        1.0     0.670803     0.502978     0.204505    Uiso  ? O
   O38        1.0     0.672172     0.499296     0.300151    Uiso  ? O
   O39        1.0     0.834788     0.834813     0.208194    Uiso  ? O
   O40        1.0     0.826382     0.826415     0.304054    Uiso  ? O
   O41        1.0     0.502867     0.670816     0.204521    Uiso  ? O
   O42        1.0     0.499392     0.672205     0.300224    Uiso  ? O
   O43        1.0     0.831294     0.499884     0.280689    Uiso  ? O
   O44        1.0     0.830261     0.500071     0.222353    Uiso  ? O
   O45        1.0     0.670376     0.670385     0.282551    Uiso  ? O
   O46        1.0     0.672193     0.672270     0.224446    Uiso  ? O
   O47        1.0     0.499820     0.831266     0.280786    Uiso  ? O
   O48        1.0     0.499923     0.830129     0.222460    Uiso  ? O
