data_POSCAR_ini
_audit_creation_date              2025-02-14
_audit_creation_method            'Materials Studio'
_symmetry_space_group_name_H-M    'P1'
_symmetry_Int_Tables_number       1
_symmetry_cell_setting            triclinic
loop_
_symmetry_equiv_pos_as_xyz
  x,y,z
_cell_length_a                    14.6977
_cell_length_b                    14.6977
_cell_length_c                    49.2004
_cell_angle_alpha                 90.0000
_cell_angle_beta                  90.0000
_cell_angle_gamma                 120.0000
loop_
_atom_site_label
_atom_site_type_symbol
_atom_site_fract_x
_atom_site_fract_y
_atom_site_fract_z
_atom_site_U_iso_or_equiv
_atom_site_adp_type
_atom_site_occupancy
H1     H     0.89016   0.57805   0.19840   0.00000  Uiso   1.00
H2     H     0.82729   0.45720   0.19836   0.00000  Uiso   1.00
O1     O     0.86412   0.51742   0.21037   0.00000  Uiso   1.00
loop_
_geom_bond_atom_site_label_1
_geom_bond_atom_site_label_2
_geom_bond_distance
_geom_bond_site_symmetry_2
_ccdc_geom_bond_type
H1     O1      0.973   .     S
H2     O1      0.973   .     S
